Circuit: * C:\Users\Lucas\Documents\Actualmente Usando\Electrónica III\tp2-grupo-1\EJ5\Simulaciones\Draft1.asc

Direct Newton iteration for .op point succeeded.
Semiconductor Device Operating Points:
                        --- Diodes ---
Name:      d1
Model:   1n5819
Id:      4.74e-02
Vd:      2.62e-01
Req:     7.49e-01
CAP:     1.22e-10



Date: Sun Oct 13 00:05:25 2019
Total elapsed time: 0.079 seconds.

tnom = 27
temp = 27
method = trap
totiter = 4
traniter = 0
tranpoints = 0
accept = 0
rejected = 0
matrix size = 4
fillins = 0
solver = Normal
Matrix Compiler1: 118 bytes object code size
Matrix Compiler2: 242 bytes object code size
