Circuit: * C:\Users\Lucas\Documents\Actualmente Usando\Electrónica III\tp2-grupo-1\EJ5\Simulaciones\level_shifter.asc

Direct Newton iteration for .op point succeeded.

Date: Wed Oct 09 16:36:59 2019
Total elapsed time: 0.354 seconds.

tnom = 27
temp = 27
method = modified trap
totiter = 55252
traniter = 55242
tranpoints = 21633
accept = 21201
rejected = 432
matrix size = 15
fillins = 0
solver = Normal
Matrix Compiler1: 818 bytes object code size  0.2/0.1/[0.1]
Matrix Compiler2: 1.24 KB object code size  0.2/0.3/[0.1]

